Circuit: * C:\Users\jlaur\Desktop\bcg_spice\lvl_shifter.asc

WARNING: Less than two connections to node out.  This node is used by r4.
Direct Newton iteration for .op point succeeded.

Date: Fri Jan  3 19:06:49 2025
Total elapsed time: 0.250 seconds.

tnom = 27
temp = 27
method = modified trap
totiter = 12852
traniter = 12847
tranpoints = 5927
accept = 4276
rejected = 1651
matrix size = 16
fillins = 8
solver = Normal
Avg thread counts: 1.2/1.5/1.4/1.2
Matrix Compiler1: 1004 bytes object code size  0.8/0.4/[0.3]
Matrix Compiler2: 1.50 KB object code size  0.4/0.6/[0.3]

